SOLUTION 0  CaCl2
        units            mmol/kgw
        temp             25.0
        pH               7.0     charge
        pe               12.5    O2(g)   -0.68
        Ca               1.1104192876570247
        Cl               0.46397502606196106
        Na               1.1826684204389684
        K                1.465619864189116
        N(5)             0.019660744682568287                
SOLUTION 1  Initial solution for column
        units            mmol/kgw
        temp             25.0
        pH               7.0     charge
        pe               12.5    O2(g)   -0.68
        Ca               0.7624259667010413
        Cl               0.8764180171711015        
        Na               0.0
        K                1.4694521205414353
        N(5)             0.2830450199550736
EXCHANGE 1
        -equilibrate 1
        X                0.0011
END
